Simulacoes/57/06 - EE/ieee57_23_2300_EE.txt
================================================================================= 
=== UFF - Doutorado em Computação - Aplicaçoes em Sistemas de Potencia        === 
=== ESTIMADOR DE ESTADO MÍNIMOS QUADRADOS PONDERADOS INCLUINDO MEDIDAS DE PMU === 
=== Desenvolvido por: Rui Menezes de Moraes - 2009                            === 
================================================================================= 
Arquivo de medidores:          F:\Documents\Uff\Artigos\SimSEP\VERSAO WELDAN V2\Codigos\Med\ieee57_23_2300.med
Arquivo do sistema:            F:\Documents\Uff\Artigos\SimSEP\VERSAO WELDAN V2\Codigos\Carga\ieee57_23_2300.txt
Tolerância entre iteraçoes:     1.00e-04
Limite de iteraçoes:           100

--- DADOS DA REDE --------------------------------------------------------------- 
Data do caso:                  08/25/93
Origem:                        UW ARCHIVE          
MVA base:                      100
Ano:                           1961
Estação:                       W
Identificação:                 IEEE 57 Bus Test Case
Número de barras:              57 
Número de ramos:               80 
Referência na barra:           1

--- TELEMEDIDAS ------------------------------------------------------------------
    Tipo 1 = Fluxo de potencia ativa        Tipo  6 = Módulo da tensão            
    Tipo 2 = Injeção de potencia ativa      Tipo  7 = Corrente de ramo (real)     
    Tipo 3 = Ângulo de fase da tensão       Tipo  8 = Corrente de ramo (imag)     
    Tipo 4 = Fluxo de potencia reativa      Tipo  9 = Injeção de corrente (real)  
    Tipo 5 = Injeção de potencia reativa    Tipo 10 = Injeção de corrente (imag)  
----------------------------------------------------------------------------------
   N    D    P TP  PN ST   Exa   FS       DP      V_Ref      V_Med          E(%) 
----------------------------------------------------------------------------------
   1    0    1  6   0  0 0.015 01.1  0.00520   +1.04000   +1.04012     +0.011538 
   2    0    2  6   0  0 0.015 01.1  0.00512   +1.02370   +1.02304     -0.064472 
   3    0    3  6   0  0 0.015 01.1  0.00514   +1.02737   +1.03001     +0.256967 
   4    0    4  6   0  0 0.015 01.1  0.00511   +1.02275   +1.03746     +1.438279 
   5    0    5  6   0  0 0.015 01.1  0.00507   +1.01477   +1.01017     -0.453305 
   6    0    6  6   0  0 0.015 01.1  0.00506   +1.01274   +1.00548     -0.716867 
   7    0    7  6   0  0 0.015 01.1  0.00504   +1.00844   +1.01116     +0.269724 
   8    0    8  6   0  0 0.015 01.1  0.00502   +1.00500   +1.01240     +0.736318 
   9    0    9  6   0  0 0.015 01.1  0.00499   +0.99730   +0.98479     -1.254387 
  10    0   10  6   0  0 0.015 01.1  0.00503   +1.00527   +1.00150     -0.375024 
  11    0   11  6   0  0 0.015 01.1  0.00500   +0.99978   +0.98739     -1.239273 
  12    0   12  6   0  0 0.015 01.1  0.00507   +1.01500   +1.00946     -0.545813 
  13    0   13  6   0  0 0.015 01.1  0.00501   +1.00285   +1.00144     -0.140599 
  14    0   14  6   0  0 0.015 01.1  0.00501   +1.00162   +0.99144     -1.016354 
  15    0   15  6   0  0 0.015 01.1  0.00507   +1.01310   +0.99972     -1.320699 
  16    0   16  6   0  0 0.015 01.1  0.00509   +1.01791   +1.01622     -0.166026 
  17    0   17  6   0  0 0.015 01.1  0.00512   +1.02469   +1.01809     -0.644097 
  18    0   18  6   0  0 0.015 01.1  0.00532   +1.06470   +1.05509     -0.902602 
  19    0   19  6   0  0 0.015 01.1  0.00523   +1.04512   +1.04542     +0.028705 
  20    0   20  6   0  0 0.015 01.1  0.00519   +1.03711   +1.02216     -1.441506 
  21    0   21  6   0  0 0.015 01.1  0.00539   +1.07763   +1.08830     +0.990136 
  22    0   22  6   0  0 0.015 01.1  0.00538   +1.07648   +1.06680     -0.899227 
  23    0   23  6   0  0 0.015 01.1  0.00538   +1.07647   +1.07409     -0.221093 
  24    0   24  6   0  0 0.015 01.1  0.00540   +1.08080   +1.08835     +0.698557 
  25    0   25  6   0  0 0.015 01.1  0.00552   +1.10397   +1.10486     +0.080618 
  26    0   26  6   0  0 0.015 01.1  0.00516   +1.03145   +1.02432     -0.691260 
  27    0   27  6   0  0 0.015 01.1  0.00519   +1.03806   +1.04640     +0.803422 
  28    0   28  6   0  0 0.015 01.1  0.00522   +1.04370   +1.05793     +1.363419 
  29    0   29  6   0  0 0.015 01.1  0.00525   +1.04945   +1.03741     -1.147268 
  30    0   30  6   0  0 0.015 01.1  0.00548   +1.09576   +1.08014     -1.425495 
  31    0   31  6   0  0 0.015 01.1  0.00541   +1.08244   +1.07991     -0.233731 
  32    0   32  6   0  0 0.015 01.1  0.00539   +1.07833   +1.06424     -1.306650 
  33    0   33  6   0  0 0.015 01.1  0.00539   +1.07763   +1.06552     -1.123762 
  34    0   34  6   0  0 0.015 01.1  0.00530   +1.05943   +1.04648     -1.222355 
  35    0   35  6   0  0 0.015 01.1  0.00530   +1.06055   +1.05205     -0.801471 
  36    0   36  6   0  0 0.015 01.1  0.00531   +1.06263   +1.05342     -0.866717 
  37    0   37  6   0  0 0.015 01.1  0.00533   +1.06569   +1.06920     +0.329364 
  38    0   38  6   0  0 0.015 01.1  0.00538   +1.07622   +1.07282     -0.315921 
  39    0   39  6   0  0 0.015 01.1  0.00532   +1.06469   +1.07193     +0.680010 
  40    0   40  6   0  0 0.015 01.1  0.00530   +1.06047   +1.07515     +1.384292 
  41    0   41  6   0  0 0.015 01.1  0.00527   +1.05337   +1.06128     +0.750923 
  42    0   42  6   0  0 0.015 01.1  0.00524   +1.04849   +1.03524     -1.263722 
  43    0   43  6   0  0 0.015 01.1  0.00523   +1.04585   +1.05739     +1.103409 
  44    0   44  6   0  0 0.015 01.1  0.00536   +1.07141   +1.06700     -0.411607 
  45    0   45  6   0  0 0.015 01.1  0.00532   +1.06388   +1.07336     +0.891078 
  46    0   46  6   0  0 0.015 01.1  0.00550   +1.10075   +1.11021     +0.859414 
  47    0   47  6   0  0 0.015 01.1  0.00544   +1.08732   +1.08182     -0.505831 
  48    0   48  6   0  0 0.015 01.1  0.00542   +1.08437   +1.09900     +1.349170 
  49    0   49  6   0  0 0.015 01.1  0.00545   +1.08939   +1.10012     +0.984955 
  50    0   50  6   0  0 0.015 01.1  0.00540   +1.08063   +1.08482     +0.387737 
  51    0   51  6   0  0 0.015 01.1  0.00541   +1.08290   +1.07626     -0.613168 
  52    0   52  6   0  0 0.015 01.1  0.00522   +1.04487   +1.04854     +0.351240 
  53    0   53  6   0  0 0.015 01.1  0.00522   +1.04463   +1.05994     +1.465591 
  54    0   54  6   0  0 0.015 01.1  0.00524   +1.04872   +1.04381     -0.468190 
  55    0   55  6   0  0 0.015 01.1  0.00528   +1.05620   +1.04795     -0.781102 
  56    0   56  6   0  0 0.015 01.1  0.00527   +1.05375   +1.03795     -1.499407 
  57    0   57  6   0  0 0.015 01.1  0.00528   +1.05494   +1.06790     +1.228506 
  58    0    1  2   0  0 0.020 01.0  0.03027   -4.28122   -4.25805     -0.541201 
  59    0    2  2   0  0 0.020 01.0  0.00180   -0.00998   -0.00689    -30.961924 
  60    0    3  2   0  0 0.020 01.0  0.01535   +2.04195   +2.06486     +1.121967 
  61    0    4  2   0  0 0.020 01.0  0.00173   -0.00000   +0.00122     +0.000000 
  62    0    5  2   0  0 0.020 01.0  0.00203   -0.04500   -0.04886     +8.577778 
  63    0    6  2   0  0 0.020 01.0  0.00349   -0.26300   -0.25581     -2.733840 
  64    0    7  2   0  0 0.020 01.0  0.00173   +0.00000   +0.00225     +0.000000 
  65    0    8  2   0  0 0.020 01.0  0.02823   +3.97500   +4.00072     +0.647044 
  66    0    9  2   0  0 0.020 01.0  0.00609   -0.65300   -0.64888     -0.630934 
  67    0   10  2   0  0 0.020 01.0  0.00223   -0.07500   -0.06999     -6.680000 
  68    0   11  2   0  0 0.020 01.0  0.00173   +0.00000   +0.00304     +0.000000 
  69    0   12  2   0  0 0.020 01.0  0.00960   +1.18000   +1.19293     +1.095763 
  70    0   13  2   0  0 0.020 01.0  0.00215   -0.06300   -0.06417     +1.857143 
  71    0   14  2   0  0 0.020 01.0  0.00198   -0.03700   -0.03109    -15.972973 
  72    0   15  2   0  0 0.020 01.0  0.00225   -0.07697   -0.07530     -2.169676 
  73    0   16  2   0  0 0.020 01.0  0.00273   -0.15000   -0.15241     +1.606667 
  74    0   17  2   0  0 0.020 01.0  0.00271   -0.14700   -0.15217     +3.517007 
  75    0   18  2   0  0 0.020 01.0  0.00237   -0.09500   -0.09754     +2.673684 
  76    0   19  2   0  0 0.020 01.0  0.00181   -0.01200   -0.01466    +22.166667 
  77    0   20  2   0  0 0.020 01.0  0.00179   -0.00800   -0.00327    -59.125000 
  78    0   21  2   0  0 0.020 01.0  0.00173   -0.00000   +0.00409     +0.000000 
  79    0   22  2   0  0 0.020 01.0  0.00173   +0.00000   +0.00508     +0.000000 
  80    0   23  2   0  0 0.020 01.0  0.00188   -0.02200   -0.01690    -23.181818 
  81    0   24  2   0  0 0.020 01.0  0.00173   +0.00000   +0.00389     +0.000000 
  82    0   25  2   0  0 0.020 01.0  0.00188   -0.02200   -0.02581    +17.318182 
  83    0   26  2   0  0 0.020 01.0  0.00173   -0.00000   -0.00367     +0.000000 
  84    0   27  2   0  0 0.020 01.0  0.00195   -0.03300   -0.03124     -5.333333 
  85    0   28  2   0  0 0.020 01.0  0.00184   -0.01600   -0.01280    -20.000000 
  86    0   29  2   0  0 0.020 01.0  0.00213   -0.05900   -0.06446     +9.254237 
  87    0   30  2   0  0 0.020 01.0  0.00182   -0.01300   -0.01579    +21.461538 
  88    0   31  2   0  0 0.020 01.0  0.00187   -0.02000   -0.02548    +27.400000 
  89    0   32  2   0  0 0.020 01.0  0.00177   -0.00600   -0.00885    +47.500000 
  90    0   33  2   0  0 0.020 01.0  0.00182   -0.01300   -0.01568    +20.615385 
  91    0   34  2   0  0 0.020 01.0  0.00173   -0.00000   +0.00429     +0.000000 
  92    0   35  2   0  0 0.020 01.0  0.00187   -0.02100   -0.02249     +7.095238 
  93    0   36  2   0  0 0.020 01.0  0.00173   +0.00000   -0.00480     +0.000000 
  94    0   37  2   0  0 0.020 01.0  0.00173   +0.00000   +0.00157     +0.000000 
  95    0   38  2   0  0 0.020 01.0  0.00206   -0.04900   -0.04509     -7.979592 
  96    0   39  2   0  0 0.020 01.0  0.00173   +0.00000   -0.00433     +0.000000 
  97    0   40  2   0  0 0.020 01.0  0.00173   +0.00000   -0.00508     +0.000000 
  98    0   41  2   0  0 0.020 01.0  0.00188   -0.02200   -0.02352     +6.909091 
  99    0   42  2   0  0 0.020 01.0  0.00190   -0.02500   -0.02599     +3.960000 
 100    0   43  2   0  0 0.020 01.0  0.00178   -0.00700   -0.00790    +12.857143 
 101    0   44  2   0  0 0.020 01.0  0.00201   -0.04200   -0.04244     +1.047619 
 102    0   45  2   0  0 0.020 01.0  0.00173   -0.00000   -0.00035     +0.000000 
 103    0   46  2   0  0 0.020 01.0  0.00173   +0.00000   +0.00050     +0.000000 
 104    0   47  2   0  0 0.020 01.0  0.00243   -0.10400   -0.10352     -0.461538 
 105    0   48  2   0  0 0.020 01.0  0.00173   +0.00000   +0.00008     +0.000000 
 106    0   49  2   0  0 0.020 01.0  0.00215   -0.06300   -0.05937     -5.761905 
 107    0   50  2   0  0 0.020 01.0  0.00222   -0.07300   -0.07580     +3.835616 
 108    0   51  2   0  0 0.020 01.0  0.00215   -0.06300   -0.06235     -1.031746 
 109    0   52  2   0  0 0.020 01.0  0.00185   -0.01700   -0.01617     -4.882353 
 110    0   53  2   0  0 0.020 01.0  0.00220   -0.07000   -0.07391     +5.585714 
 111    0   54  2   0  0 0.020 01.0  0.00183   -0.01400   -0.01339     -4.357143 
 112    0   55  2   0  0 0.020 01.0  0.00189   -0.02400   -0.02725    +13.541667 
 113    0   56  2   0  0 0.020 01.0  0.00191   -0.02700   -0.02644     -2.074074 
 114    0   57  2   0  0 0.020 01.0  0.00189   -0.02300   -0.02787    +21.173913 
 115    0    1  5   0  0 0.020 01.0  0.01683   +2.26431   +2.30071     +1.607554 
 116    0    2  5   0  0 0.020 01.0  0.00492   -0.47800   -0.48661     +1.801255 
 117    0    3  5   0  0 0.020 01.0  0.00289   -0.17291   -0.17744     +2.619860 
 118    0    4  5   0  0 0.020 01.0  0.00173   +0.00000   -0.00124     +0.000000 
 119    0    5  5   0  0 0.020 01.0  0.00183   -0.01400   -0.01633    +16.642857 
 120    0    6  5   0  0 0.020 01.0  0.00231   -0.08699   -0.08351     -4.000460 
 121    0    7  5   0  0 0.020 01.0  0.00173   -0.00000   -0.00188     +0.000000 
 122    0    8  5   0  0 0.020 01.0  0.00543   -0.55486   -0.56766     +2.306888 
 123    0    9  5   0  0 0.020 01.0  0.00287   -0.17000   -0.16473     -3.100000 
 124    0   10  5   0  0 0.020 01.0  0.00193   -0.03000   -0.03288     +9.600000 
 125    0   11  5   0  0 0.020 01.0  0.00173   -0.00000   +0.00004     +0.000000 
 126    0   12  5   0  0 0.020 01.0  0.00201   -0.04230   -0.04786    +13.144208 
 127    0   13  5   0  0 0.020 01.0  0.00179   -0.00800   -0.00667    -16.625000 
 128    0   14  5   0  0 0.020 01.0  0.00186   -0.01900   -0.02026     +6.631579 
 129    0   15  5   0  0 0.020 01.0  0.00185   -0.01800   -0.02014    +11.888889 
 130    0   16  5   0  0 0.020 01.0  0.00180   -0.01000   -0.01181    +18.100000 
 131    0   17  5   0  0 0.020 01.0  0.00192   -0.02800   -0.02303    -17.750000 
 132    0   18  5   0  0 0.020 01.0  0.00196   -0.03400   -0.03438     +1.117647 
 133    0   19  5   0  0 0.020 01.0  0.00175   -0.00200   -0.00724   +262.000000 
 134    0   20  5   0  0 0.020 01.0  0.00175   -0.00300   -0.00063    -79.000000 
 135    0   21  5   0  0 0.020 01.0  0.00173   +0.00000   -0.00105     +0.000000 
 136    0   22  5   0  0 0.020 01.0  0.00173   -0.00000   -0.00496     +0.000000 
 137    0   23  5   0  0 0.020 01.0  0.00178   -0.00700   -0.00553    -21.000000 
 138    0   24  5   0  0 0.020 01.0  0.00173   +0.00000   -0.00063     +0.000000 
 139    0   25  5   0  0 0.020 01.0  0.00181   -0.01100   -0.01001     -9.000000 
 140    0   26  5   0  0 0.020 01.0  0.00173   -0.00000   +0.00123     +0.000000 
 141    0   27  5   0  0 0.020 01.0  0.00175   -0.00200   -0.00248    +24.000000 
 142    0   28  5   0  0 0.020 01.0  0.00179   -0.00800   -0.01283    +60.375000 
 143    0   29  5   0  0 0.020 01.0  0.00179   -0.00900   -0.00664    -26.222222 
 144    0   30  5   0  0 0.020 01.0  0.00177   -0.00600   -0.00345    -42.500000 
 145    0   31  5   0  0 0.020 01.0  0.00180   -0.01000   -0.01103    +10.300000 
 146    0   32  5   0  0 0.020 01.0  0.00175   -0.00300   -0.00772   +157.333333 
 147    0   33  5   0  0 0.020 01.0  0.00178   -0.00700   -0.00222    -68.285714 
 148    0   34  5   0  0 0.020 01.0  0.00173   -0.00000   +0.00392     +0.000000 
 149    0   35  5   0  0 0.020 01.0  0.00180   -0.01000   -0.00646    -35.400000 
 150    0   36  5   0  0 0.020 01.0  0.00173   -0.00000   -0.00053     +0.000000 
 151    0   37  5   0  0 0.020 01.0  0.00173   +0.00000   +0.00400     +0.000000 
 152    0   38  5   0  0 0.020 01.0  0.00189   -0.02400   -0.01998    -16.750000 
 153    0   39  5   0  0 0.020 01.0  0.00173   -0.00000   +0.00154     +0.000000 
 154    0   40  5   0  0 0.020 01.0  0.00173   -0.00000   +0.00007     +0.000000 
 155    0   41  5   0  0 0.020 01.0  0.00180   -0.01000   -0.01458    +45.800000 
 156    0   42  5   0  0 0.020 01.0  0.00183   -0.01500   -0.01651    +10.066667 
 157    0   43  5   0  0 0.020 01.0  0.00175   -0.00300   -0.00583    +94.333333 
 158    0   44  5   0  0 0.020 01.0  0.00177   -0.00600   -0.00217    -63.833333 
 159    0   45  5   0  0 0.020 01.0  0.00173   +0.00000   +0.00140     +0.000000 
 160    0   46  5   0  0 0.020 01.0  0.00173   +0.00000   +0.00241     +0.000000 
 161    0   47  5   0  0 0.020 01.0  0.00201   -0.04100   -0.04514    +10.097561 
 162    0   48  5   0  0 0.020 01.0  0.00173   -0.00000   +0.00468     +0.000000 
 163    0   49  5   0  0 0.020 01.0  0.00193   -0.03000   -0.03116     +3.866667 
 164    0   50  5   0  0 0.020 01.0  0.00198   -0.03700   -0.03568     -3.567568 
 165    0   51  5   0  0 0.020 01.0  0.00186   -0.01900   -0.01567    -17.526316 
 166    0   52  5   0  0 0.020 01.0  0.00179   -0.00800   -0.00600    -25.000000 
 167    0   53  5   0  0 0.020 01.0  0.00197   -0.03500   -0.04090    +16.857143 
 168    0   54  5   0  0 0.020 01.0  0.00177   -0.00500   -0.00497     -0.600000 
 169    0   55  5   0  0 0.020 01.0  0.00181   -0.01200   -0.00672    -44.000000 
 170    0   56  5   0  0 0.020 01.0  0.00179   -0.00800   -0.01328    +66.000000 
 171    0   57  5   0  0 0.020 01.0  0.00178   -0.00700   -0.01190    +70.000000 
 172    1    2  1   0  0 0.020 01.0  0.01215   -1.56201   -1.59091     +1.850180 
 173    2    3  1   0  0 0.020 01.0  0.01240   -1.60026   -1.59257     -0.480547 
 174    3    4  1   0  0 0.020 01.0  0.00573   -0.60016   -0.61577     +2.600973 
 175    4    5  1   0  0 0.020 01.0  0.00358   -0.27754   -0.27922     +0.605318 
 176    4    6  1   0  0 0.020 01.0  0.00475   -0.45169   -0.45580     +0.909916 
 177    6    7  1   0  0 0.020 01.0  0.00471   -0.44659   -0.44100     -1.251707 
 178    6    8  1   0  0 0.020 01.0  0.00582   -0.61233   -0.61711     +0.780625 
 179    8    9  1   0  0 0.020 01.0  0.01827   +2.48079   +2.46156     -0.775156 
 180    9   10  1   0  0 0.020 01.0  0.00426   +0.37943   +0.38396     +1.193896 
 181    9   11  1   0  0 0.020 01.0  0.00549   +0.56402   +0.56676     +0.485798 
 182    9   12  1   0  0 0.020 01.0  0.00358   +0.27688   +0.27131     -2.011702 
 183    9   13  1   0  0 0.020 01.0  0.00517   +0.51597   +0.51209     -0.751982 
 184   13   14  1   0  0 0.020 01.0  0.00463   +0.43437   +0.42617     -1.887792 
 185   13   15  1   0  0 0.020 01.0  0.00445   +0.40679   +0.40036     -1.580668 
 186    1   15  1   0  0 0.020 01.0  0.01226   -1.57913   -1.55358     -1.617980 
 187    1   16  1   0  0 0.020 01.0  0.00570   -0.59507   -0.59757     +0.420119 
 188    1   17  1   0  0 0.020 01.0  0.00537   -0.54501   -0.53995     -0.928423 
 189    3   15  1   0  0 0.020 01.0  0.00811   +0.95691   +0.95844     +0.159890 
 190    4   18  1   0  0 0.020 01.0  0.00210   +0.05445   +0.05995    +10.101010 
 191    4   18  1   0  0 0.020 01.0  0.00220   +0.06970   +0.06751     -3.142037 
 192    5    6  1   0  0 0.020 01.0  0.00393   -0.32958   -0.33286     +0.995206 
 193    7    8  1   0  0 0.020 01.0  0.00745   -0.85729   -0.84627     -1.285446 
 194   10   12  1   0  0 0.020 01.0  0.00265   +0.13670   +0.14247     +4.220922 
 195   11   13  1   0  0 0.020 01.0  0.00475   +0.45310   +0.43947     -3.008166 
 196   12   13  1   0  0 0.020 01.0  0.00234   +0.09116   +0.09607     +5.386134 
 197   12   16  1   0  0 0.020 01.0  0.00690   +0.77440   +0.78713     +1.643853 
 198   12   17  1   0  0 0.020 01.0  0.00654   +0.72146   +0.72314     +0.232861 
 199   14   15  1   0  0 0.020 01.0  0.00370   +0.29516   +0.29369     -0.498035 
...
Número de medidores SCADA:     491
Número de PMUs:                0
Número de medidas das PMUs:    0
----------------------------------------------------------------------------------

Não há medidas de ângulo.
Não há medidores desabilitados.
============================== Estado Estimado ===================================
                 Barra     Mod(pu)    Ang(graus)              
----------------------------------------------------------------------------------
                    1            1.0395              0.00        
                    2            1.0230              2.87        
                    3            1.0264             11.39        
                    4            1.0218             12.80        
                    5            1.0140             15.52        
                    6            1.0121             17.03        
                    7            1.0077             19.73        
                    8            1.0042             23.38        
                    9            0.9966             16.08        
                   10            1.0046             12.21        
                   11            0.9988             13.05        
                   12            1.0141             11.05        
                   13            1.0019             10.93        
                   14            1.0007              9.78        
                   15            1.0122              8.58        
                   16            1.0168              7.36        
                   17            1.0244              3.53        
                   18            1.0612             11.30        
                   19            1.0416             10.45        
                   20            1.0355             10.17        
                   21            1.0766              9.81        
                   22            1.0754              9.80        
                   23            1.0754              9.90        
                   24            1.0792             11.96        
                   25            1.1026             10.05        
                   26            1.0299             12.44        
                   27            1.0372             15.97        
                   28            1.0430             17.42        
                   29            1.0488             18.34        
                   30            1.0943              9.77        
                   31            1.0808              9.27        
                   32            1.0751              9.02        
                   33            1.0744              9.01        
                   34            1.0578              9.66        
                   35            1.0589              9.68        
                   36            1.0611              9.74        
                   37            1.0643              9.69        
                   38            1.0751              9.58        
                   39            1.0634              9.71        
                   40            1.0589              9.82        
                   41            1.0513             11.39        
                   42            1.0460             10.45        
                   43            1.0447             12.57        
                   44            1.0704              9.29        
                   45            1.0631              8.95        
                   46            1.0996              9.43        
                   47            1.0861              9.30        
                   48            1.0832              9.44        
                   49            1.0885              9.71        
                   50            1.0800             10.20        
                   51            1.0823             11.64        
                   52            1.0438             17.02        
                   53            1.0430             16.39        
                   54            1.0473             16.05        
                   55            1.0556             15.87        
                   56            1.0511              9.86        
                   57            1.0523              9.48        
----------------------------------------------------------------------------------
Convergiu em:    3 iteraçoes. 
----------------------------------------------------------------------------------
--- RESIDUOS NORMALIZADOS --------------------------------------------------------
   N    D    P  TP      Real     Medido   Estimado      Med-Est        rn 
----------------------------------------------------------------------------------
 430   18    4  4    +0.0205    +0.0167    +0.0415  -2.4775e-02      0.611 
 270    4   18  4    -0.0189    -0.0227    -0.0391  +1.6379e-02      0.404 
 350   18    4  1    -0.0544    -0.0502    -0.0673  +1.7096e-02      0.398 
 132    0   18  5    -0.0340    -0.0344    -0.0455  +1.1148e-02      0.339 
 252    1    2  4    +1.0459    +1.0319    +1.0555  -2.3544e-02      0.283 
 118    0    4  5    +0.0000    -0.0012    +0.0045  -5.7147e-03      0.249 
  60    0    3  2    +2.0419    +2.0649    +2.0401  +2.4778e-02      0.246 
 172    1    2  1    -1.5620    -1.5909    -1.5662  -2.4733e-02      0.239 
 186    1   15  1    -1.5791    -1.5536    -1.5788  +2.5253e-02      0.238 
  53    0   53  6    +1.0446    +1.0599    +1.0430  +1.6949e-02      0.237 
  75    0   18  2    -0.0950    -0.0975    -0.0892  -8.3610e-03      0.231 
 358   17   12  1    -0.7004    -0.6838    -0.7016  +1.7758e-02      0.229 
 273    7    8  4    +0.2350    +0.2251    +0.2371  -1.1919e-02      0.228 
  40    0   40  6    +1.0605    +1.0752    +1.0589  +1.6235e-02      0.225 
   4    0    4  6    +1.0228    +1.0375    +1.0218  +1.5693e-02      0.221 
 114    0   57  2    -0.0230    -0.0279    -0.0203  -7.5568e-03      0.220 
  57    0   57  6    +1.0549    +1.0679    +1.0523  +1.5640e-02      0.220 
 431   18    4  4    +0.0479    +0.0508    +0.0415  +9.2848e-03      0.217 
  48    0   48  6    +1.0844    +1.0990    +1.0832  +1.5766e-02      0.216 
 413    3    2  4    -0.4536    -0.4422    -0.4561  +1.3816e-02      0.215 
 344   14   13  1    -0.4318    -0.4447    -0.4312  -1.3455e-02      0.210 
  28    0   28  6    +1.0437    +1.0579    +1.0430  +1.4941e-02      0.209 
 115    0    1  5    +2.2643    +2.3007    +2.2785  +2.2237e-02      0.205 
 195   11   13  1    +0.4531    +0.4395    +0.4525  -1.3059e-02      0.203 
  68    0   11  2    +0.0000    +0.0030    -0.0011  +4.1476e-03      0.198 
  30    0   30  6    +1.0958    +1.0801    +1.0943  -1.4167e-02      0.197 
 179    8    9  1    +2.4808    +2.4616    +2.4853  -2.3736e-02      0.191 
  20    0   20  6    +1.0371    +1.0222    +1.0355  -1.3340e-02      0.190 
  56    0   56  6    +1.0537    +1.0379    +1.0511  -1.3126e-02      0.184 
  88    0   31  2    -0.0200    -0.0255    -0.0195  -6.0072e-03      0.182 
  81    0   24  2    +0.0000    +0.0039    -0.0008  +4.6737e-03      0.182 
 261    9   11  4    -0.1953    -0.2024    -0.1932  -9.1686e-03      0.178 
  43    0   43  6    +1.0458    +1.0574    +1.0447  +1.2718e-02      0.178 
  15    0   15  6    +1.0131    +0.9997    +1.0122  -1.2520e-02      0.177 
  78    0   21  2    -0.0000    +0.0041    -0.0015  +5.5967e-03      0.174 
 190    4   18  1    +0.0544    +0.0600    +0.0673  -7.3265e-03      0.170 
 207   24   25  1    +0.0309    +0.0251    +0.0323  -7.1740e-03      0.170 
  97    0   40  2    +0.0000    -0.0051    +0.0006  -5.7260e-03      0.168 
   9    0    9  6    +0.9973    +0.9848    +0.9966  -1.1761e-02      0.168 
 339    9    8  1    -2.4202    -2.4448    -2.4244  -2.0428e-02      0.165 
 414    4    3  4    -0.3258    -0.3192    -0.3283  +9.1197e-03      0.164 
  11    0   11  6    +0.9998    +0.9874    +0.9988  -1.1449e-02      0.163 
 441   20   19  4    -0.0082    -0.0109    -0.0047  -6.2263e-03      0.162 
  79    0   22  2    +0.0000    +0.0051    +0.0008  +4.3234e-03      0.161 
  72    0   15  2    -0.0770    -0.0753    -0.0785  +3.2327e-03      0.161 
  21    0   21  6    +1.0776    +1.0883    +1.0766  +1.1668e-02      0.161 
 380   37   36  1    +0.0321    +0.0268    +0.0327  -5.8929e-03      0.160 
  49    0   49  6    +1.0894    +1.1001    +1.0885  +1.1659e-02      0.159 
  29    0   29  6    +1.0494    +1.0374    +1.0488  -1.1410e-02      0.159 
  58    0    1  2    -4.2812    -4.2580    -4.2823  +2.4243e-02      0.158 
  65    0    8  2    +3.9750    +4.0007    +3.9776  +2.3154e-02      0.158 
  34    0   34  6    +1.0594    +1.0465    +1.0578  -1.1278e-02      0.157 
 317   13   49  4    +0.1840    +0.1752    +0.1834  -8.1887e-03      0.156 
 162    0   48  5    -0.0000    +0.0047    +0.0006  +4.0439e-03      0.153 
 397   49   13  1    -0.1359    -0.1283    -0.1358  +7.5328e-03      0.153 
  32    0   32  6    +1.0783    +1.0642    +1.0751  -1.0870e-02      0.153 
 416    6    4  4    -0.2016    -0.2076    -0.1994  -8.1563e-03      0.152 
  42    0   42  6    +1.0485    +1.0352    +1.0460  -1.0780e-02      0.152 
 472   48   47  4    -0.1418    -0.1475    -0.1406  -6.9212e-03      0.152 
 345   15   13  1    -0.4009    -0.4102    -0.4004  -9.7389e-03      0.151 
 208   24   26  1    -0.1886    -0.1973    -0.1900  -7.3034e-03      0.150 
 149    0   35  5    -0.0100    -0.0065    -0.0113  +4.8022e-03      0.149 
 357   16   12  1    -0.7633    -0.7554    -0.7668  +1.1413e-02      0.148 
 348   17    1  1    +0.5534    +0.5618    +0.5520  +9.8129e-03      0.145 
 251    9   55  1    +0.0309    +0.0288    +0.0341  -5.3152e-03      0.145 
 444   23   22  4    -0.0665    -0.0715    -0.0657  -5.7737e-03      0.144 
  46    0   46  6    +1.1007    +1.1102    +1.0996  +1.0586e-02      0.144 
 276   12   13  4    +0.1536    +0.1600    +0.1531  +6.8696e-03      0.144 
 174    3    4  1    -0.6002    -0.6158    -0.6063  -9.4857e-03      0.143 
 263    9   13  4    -0.1869    -0.1936    -0.1859  -7.6387e-03      0.143 
 351   18    4  1    -0.0697    -0.0736    -0.0673  -6.2835e-03      0.142 
  45    0   45  6    +1.0639    +1.0734    +1.0631  +1.0285e-02      0.142 
 359   15   14  1    -0.2922    -0.2998    -0.2918  -7.9990e-03      0.141 
 122    0    8  5    -0.5549    -0.5677    -0.5595  -8.2004e-03      0.141 
  66    0    9  2    -0.6530    -0.6489    -0.6552  +6.2896e-03      0.141 
 152    0   38  5    -0.0240    -0.0200    -0.0235  +3.4936e-03      0.140 
  41    0   41  6    +1.0534    +1.0613    +1.0513  +9.9396e-03      0.139 
 446   25   24  4    +0.0222    +0.0272    +0.0215  +5.7387e-03      0.138 
  93    0   36  2    +0.0000    -0.0048    -0.0009  -3.8590e-03      0.137 
 415    5    4  4    -0.2005    -0.2062    -0.1989  -7.2578e-03      0.136 
 103    0   46  2    +0.0000    +0.0005    -0.0035  +3.9593e-03      0.136 
 155    0   41  5    -0.0100    -0.0146    -0.0108  -3.7842e-03      0.136 
 470   46   14  4    -0.1818    -0.1898    -0.1831  -6.6772e-03      0.135 
 477   49   13  4    -0.1760    -0.1684    -0.1754  +7.0134e-03      0.135 
 193    7    8  1    -0.8573    -0.8463    -0.8571  +1.0820e-02      0.135 
 353    8    7  1    +0.8681    +0.8786    +0.8680  +1.0651e-02      0.132 
  14    0   14  6    +1.0016    +0.9914    +1.0007  -9.2555e-03      0.132 
 294   30   31  4    +0.0111    +0.0064    +0.0114  -4.9375e-03      0.131 
 349   15    3  1    -0.9429    -0.9360    -0.9467  +1.0739e-02      0.131 
 320   53   54  4    -0.0243    -0.0201    -0.0253  +5.1774e-03      0.130 
 311   46   47  4    +0.1818    +0.1762    +0.1826  -6.3938e-03      0.130 
  27    0   27  6    +1.0381    +1.0464    +1.0372  +9.1703e-03      0.129 
 417    7    6  4    -0.1337    -0.1275    -0.1336  +6.0690e-03      0.127 
...